
This file of echoed input was generated by FAST (v8.15.00a-bjj, 12-Apr-2016) on 28-Mar-2017 at 18:42:58.

Data from FAST primary input file "Test19.fst":

------- FAST v8.15.* INPUT FILE ------------------------------------------------
               FTitle         - File Header: File Description (line 2)
  "FAST Certification Test #19: NREL 5.0 MW Baseline Wind Turbine with OC3 Monopile RF Configuration, for use in offshore analysis"
---------------------- SIMULATION CONTROL --------------------------------------
            T  Echo           - Echo input data to <RootName>.ech (flag)
               AbortLevel     - Error level when simulation should abort (string)
  "FATAL"
   1.0000E+02  TMax           - Total run time (s)
   2.5000E-03  DT             - Recommended module time step (s)
            2  InterpOrder    - Interpolation order for inputs and outputs {0=nearest neighbor ,1=linear, 2=quadratic} (-)
            1  NumCrctn       - Number of corrections{0=explicit calculation, i.e., no corrections} (-)
   9.9999E+04  DT_UJac        - Time between calls to get Jacobians (s)
   1.0000E+06  UJacSclFact    - Scaling factor used in Jacobians (-)
---------------------- FEATURE SWITCHES AND FLAGS ------------------------------
            1  CompElast      - Compute structural dynamics (switch) {1=ElastoDyn; 2=ElastoDyn + BeamDyn for blades}
            1  CompInflow     - inflow wind velocities (switch) {0=still air; 1=InflowWind}
            2  CompAero       - Compute aerodynamic loads (switch) {0=None; 1=AeroDyn}
            1  CompServo      - Compute control and electrical-drive dynamics (switch) {0=None; 1=ServoDyn}
            1  CompHydro      - Compute hydrodynamic loads (switch) {0=None; 1=HydroDyn}
            1  CompSub        - Compute sub-structural dynamics (switch) {0=None; 1=SubDyn}
            0  CompMooring    - Compute mooring system (switch) {0=None; 1=MAP; 2=FEAMooring; 3=MoorDyn; 4=OrcaFlex}
            0  CompIce        - Compute ice loads (switch) {0=None; 1=IceFloe}
---------------------- INPUT FILES ---------------------------------------------
               EDFile         - Name of file containing ElastoDyn input parameters (-)
  "NRELOffshrBsline5MW_OC3Monopile_ElastoDyn.dat"
               BDBldFile(1)   - Name of file containing BeamDyn blade 1input parameters (-)
  "NRELOffshrBsline5MW_BeamDyn.dat"
               BDBldFile(2)   - Name of file containing BeamDyn blade 2input parameters (-)
  "NRELOffshrBsline5MW_BeamDyn.dat"
               BDBldFile(3)   - Name of file containing BeamDyn blade 3input parameters (-)
  "NRELOffshrBsline5MW_BeamDyn.dat"
               InflowFile     - Name of file containing inflow wind input parameters (-)
  "Wind/turbsim.dat"
               AeroFile       - Name of file containing aerodynamic input parameters (-)
  "NRELOffshrBsline5MW_OC3Monopile_AeroDyn15.dat"
               ServoFile      - Name of file containing control and electrical-drive input parameters (-)
  "NRELOffshrBsline5MW_OC3Monopile_ServoDyn.dat"
               HydroFile      - Name of file containing hydrodynamic input parameters (-)
  "NRELOffshrBsline5MW_OC3Monopile_HydroDyn.dat"
               SubFile        - Name of file containing sub-structural input parameters (-)
  "NRELOffshrBsline5MW_OC3Monopile_SubDyn.dat"
               MooringFile    - Name of file containing mooring system input parameters (-)
  "unused"
               IceFile        - Name of file containing ice input parameters (-)
  "unused"
---------------------- OUTPUT --------------------------------------------------
            T  SumPrint       - Print summary data to <RootName>.sum (flag)
   1.0000E+00  SttsTime       - Amount of time between screen status messages (s)
   9.9999E+04  ChkptTime      - Amount of time between creating checkpoint files for potential restart (s)
               DT_Out         - Time step for tabular output (s)
  "1.0"
   0.0000E+00  TStart         - Time to begin tabular output (s)
            1  OutFileFmt     - Format for tabular (time-marching) output file(s) (1: text file [<RootName>.out], 2: binary file [<RootName>.outb], 3: both) (-)
            T  TabDelim       - Use tab delimiters in text tabular output file? (flag)
               OutFmt         - Format used for text tabular output (except time).  Resulting field should be 10 characters. (-)
  "ES10.3E2"
---------------------- VISUALIZATION ------------------------------------------
            0  WrVTK          - Write VTK visualization files (0=none; 1=initialization data only; 2=animation)
            1  VTK_Type       - Type of  VTK visualization data: (1=surfaces; 2=basic meshes (lines/points); 3=all meshes)
            F  VTK_fields     - Write mesh fields to VTK data files? (flag)
   1.5000E+01  VTK_fps        - Frame rate for VTK output(fps)
