
This summary file was generated by TurbSim (v1.06.00, 21-Sep-2012) on 28-Mar-2017 at 17:56:05.


Runtime Options:

1928788282  Random seed #1
    RANLUX  Type of random number generator
         F  Output binary HH turbulence parameters?
         T  Output formatted turbulence parameters?
         F  Output AeroDyn HH files?
         T  Output AeroDyn FF files?
         T  Output BLADED FF files?
         F  Output tower data?
         T  Output formatted FF files?
         T  Output coherent turbulence time step file?
         T  Clockwise rotation when looking downwind?
 0 -  NONE  IEC turbulence models scaled to exact specified standard deviation


Turbine/Model Specifications:

        13  Vertical grid-point matrix dimension
        13  Horizontal grid-point matrix dimension
     0.050  Time step [seconds]
   600.000  Analysis time [seconds]
   100.000  Usable output time [seconds]
    87.600  Hub height [m]
   175.200  Grid height [m]
   175.200  Grid width [m]
     0.000  Vertical flow angle [degrees]
     0.000  Horizontal flow angle [degrees]


Meteorological Boundary Conditions:

    IECKAI  IEC Kaimal spectral model
         1  IEC standard: IEC 61400-1 Ed. 3: 2005
     8.000  Percent turbulence intensity, IEC 61400-1 Ed. 3: 2005
       NTM  IEC Normal Turbulence Model
       N/A  IEC Extreme Turbulence Model (ETM) "c" parameter [m/s]
       IEC  Wind profile type
    84.288  Reference height [m]
     8.500  Reference wind speed [m/s]
       N/A  Jet height [m]
     0.200  Power law exponent
     0.030  Surface roughness length [m]


Coherent turbulence time step files are not available for IEC or TIDAL spectral models.

WARNING:   A coherent turbulence time step file cannot be generated with the IECKAI model.



You have requested that the following file(s) be generated:

   /home/sebasanper/PycharmProjects/owf_MDAO/aero_loads_models/turbsim_test_run/TurbSim.dat (formatted turbulence-parameter file)
   /home/sebasanper/PycharmProjects/owf_MDAO/aero_loads_models/turbsim_test_run/TurbSim.bts (AeroDyn/TurbSim full-field wind file)
   /home/sebasanper/PycharmProjects/owf_MDAO/aero_loads_models/turbsim_test_run/TurbSim.wnd (AeroDyn/BLADED full-field wnd file)
   /home/sebasanper/PycharmProjects/owf_MDAO/aero_loads_models/turbsim_test_run/TurbSim.u (formatted full-field U-component file)
   /home/sebasanper/PycharmProjects/owf_MDAO/aero_loads_models/turbsim_test_run/TurbSim.v (formatted full-field V-component file)
   /home/sebasanper/PycharmProjects/owf_MDAO/aero_loads_models/turbsim_test_run/TurbSim.w (formatted full-field W-component file)


Turbulence Simulation Scaling Parameter Summary:

   Turbulence model used                            =  IEC Kaimal
   Turbulence characteristic                        =  User-specified
   IEC standard                                     =  IEC 61400-1 Ed. 3: 2005
   Mean wind speed at hub height                    =    8.568 m/s
   Characteristic value of standard deviation       =    0.685 m/s
   Turbulence scale                                 =   42.000 m
   u-component integral scale                       =  340.200 m
   Coherency scale                                  =  340.200 m
   Characteristic value of hub turbulence intensity =    8.000%
   Gradient Richardson number                       =    0.000

   Wind profile type                                =  Power law on rotor disk, logarithmic elsewhere
   Power law exponent                               =    0.200
   Mean shear across rotor disk                     =    0.041 (m/s)/m
   Assumed rotor diameter                           =  175.200 m
   Surface roughness length                         =    0.030 m

   Number of time steps in the FFT                  =    12000
   Number of time steps output                      =     2409


Mean Flow Angles:

   Vertical   =   0.0 degrees
   Horizontal =   0.0 degrees

Mean Wind Speed Profile:

   Height    Wind Speed   Horizontal Angle  U-comp (X)   V-comp (Y)   W-comp (Z)
     (m)        (m/s)         (degrees)       (m/s)        (m/s)        (m/s)   
   ------    ----------   ----------------  ----------   ----------   ----------
    175.3        9.31            0.00          9.31         0.00         0.00
    160.7        9.67            0.00          9.67         0.00         0.00
    146.1        9.49            0.00          9.49         0.00         0.00
    131.5        9.29            0.00          9.29         0.00         0.00
    116.9        9.07            0.00          9.07         0.00         0.00
    102.3        8.84            0.00          8.84         0.00         0.00
     87.7        8.57            0.00          8.57         0.00         0.00
     73.1        8.26            0.00          8.26         0.00         0.00
     58.5        7.90            0.00          7.90         0.00         0.00
     43.9        7.46            0.00          7.46         0.00         0.00
     29.3        6.88            0.00          6.88         0.00         0.00
     14.7        5.99            0.00          5.99         0.00         0.00
      0.1        2.21            0.00          2.21         0.00         0.00


Harvested Random Seeds after Generation of the Random Numbers:

     28265250 K1
            0 K2


Hub-Height Simulated Turbulence Statistical Summary:

   Type of Wind        Min (m/s)   Mean (m/s)    Max (m/s)  Sigma (m/s)       TI (%)
   ----------------    ---------   ----------    ---------  -----------       ------
   Longitudinal (u)         6.44         8.57        10.60        0.751        8.766
   Lateral (v)             -2.29        -0.00         1.48        0.533        6.224
   Vertical (w)            -1.07         0.00         1.35        0.336        3.918
   U component              6.44         8.57        10.60        0.751        8.766
   V component             -2.29        -0.00         1.48        0.533        6.224
   W component             -1.07         0.00         1.35        0.336        3.918
   Horizontal (U&V)         6.50         8.58        10.61        0.752        8.763
   Total                    6.53         8.59        10.61        0.751        8.746

                       Min Reynolds     Mean Reynolds    Max Reynolds    Correlation
   Product             Stress (m/s)^2   Stress (m/s)^2   Stress (m/s)^2  Coefficient
   ----------------    --------------   --------------   --------------  -----------
   u'w'                     -1.555            -0.010             1.363        -0.040
   u'v'                     -2.682            -0.011             2.331        -0.027
   v'w'                     -0.957             0.026             1.485         0.144


   Friction Velocity (Ustar)  =      0.100 m/s
   Maximum Instantaneous TKE  =      2.932 (m/s)^2
   Maximum Instantaneous CTKE =      1.344 (m/s)^2


Grid Point Variance Summary:

   Y-coord  -87.60  -73.00  -58.40  -43.80  -29.20  -14.60    0.00   14.60   29.20   43.80   58.40   73.00   87.60

   Height   Standard deviation at grid points for the u component:
   175.30    0.688   0.681   0.666   0.600   0.651   0.640   0.659   0.656   0.605   0.636   0.536   0.595   0.556
   160.70    0.608   0.638   0.669   0.663   0.639   0.701   0.699   0.686   0.693   0.662   0.657   0.598   0.600
   146.10    0.556   0.571   0.598   0.647   0.650   0.664   0.651   0.585   0.652   0.664   0.611   0.567   0.581
   131.50    0.523   0.561   0.576   0.642   0.619   0.704   0.605   0.580   0.611   0.606   0.573   0.590   0.608
   116.90    0.623   0.604   0.613   0.681   0.637   0.657   0.647   0.712   0.635   0.510   0.573   0.560   0.623
   102.30    0.691   0.725   0.736   0.722   0.720   0.692   0.715   0.699   0.623   0.608   0.622   0.487   0.560
    87.70    0.703   0.663   0.698   0.712   0.705   0.747   0.751   0.732   0.659   0.665   0.658   0.538   0.566
    73.10    0.684   0.694   0.722   0.754   0.653   0.769   0.749   0.682   0.685   0.673   0.595   0.550   0.568
    58.50    0.646   0.629   0.658   0.727   0.690   0.723   0.743   0.718   0.644   0.617   0.592   0.567   0.618
    43.90    0.619   0.638   0.631   0.691   0.709   0.638   0.649   0.611   0.601   0.589   0.561   0.622   0.588
    29.30    0.590   0.571   0.614   0.680   0.652   0.637   0.575   0.557   0.555   0.573   0.586   0.558   0.587
    14.70    0.651   0.572   0.610   0.655   0.682   0.609   0.565   0.535   0.531   0.596   0.628   0.589   0.613
     0.10    0.642   0.574   0.646   0.650   0.645   0.566   0.566   0.572   0.568   0.585   0.637   0.647   0.709

   Height   Standard deviation at grid points for the v component:
   175.30    0.533   0.533   0.533   0.533   0.533   0.533   0.533   0.533   0.533   0.533   0.533   0.533   0.533
   160.70    0.533   0.533   0.533   0.533   0.533   0.533   0.533   0.533   0.533   0.533   0.533   0.533   0.533
   146.10    0.533   0.533   0.533   0.533   0.533   0.533   0.533   0.533   0.533   0.533   0.533   0.533   0.533
   131.50    0.533   0.533   0.533   0.533   0.533   0.533   0.533   0.533   0.533   0.533   0.533   0.533   0.533
   116.90    0.533   0.533   0.533   0.533   0.533   0.533   0.533   0.533   0.533   0.533   0.533   0.533   0.533
   102.30    0.533   0.533   0.533   0.533   0.533   0.533   0.533   0.533   0.533   0.533   0.533   0.533   0.533
    87.70    0.533   0.533   0.533   0.533   0.533   0.533   0.533   0.533   0.533   0.533   0.533   0.533   0.533
    73.10    0.533   0.533   0.533   0.533   0.533   0.533   0.533   0.533   0.533   0.533   0.533   0.533   0.533
    58.50    0.533   0.533   0.533   0.533   0.533   0.533   0.533   0.533   0.533   0.533   0.533   0.533   0.533
    43.90    0.533   0.533   0.533   0.533   0.533   0.533   0.533   0.533   0.533   0.533   0.533   0.533   0.533
    29.30    0.533   0.533   0.533   0.533   0.533   0.533   0.533   0.533   0.533   0.533   0.533   0.533   0.533
    14.70    0.533   0.533   0.533   0.533   0.533   0.533   0.533   0.533   0.533   0.533   0.533   0.533   0.533
     0.10    0.533   0.533   0.533   0.533   0.533   0.533   0.533   0.533   0.533   0.533   0.533   0.533   0.533

   Height   Standard deviation at grid points for the w component:
   175.30    0.336   0.336   0.336   0.336   0.336   0.336   0.336   0.336   0.336   0.336   0.336   0.336   0.336
   160.70    0.336   0.336   0.336   0.336   0.336   0.336   0.336   0.336   0.336   0.336   0.336   0.336   0.336
   146.10    0.336   0.336   0.336   0.336   0.336   0.336   0.336   0.336   0.336   0.336   0.336   0.336   0.336
   131.50    0.336   0.336   0.336   0.336   0.336   0.336   0.336   0.336   0.336   0.336   0.336   0.336   0.336
   116.90    0.336   0.336   0.336   0.336   0.336   0.336   0.336   0.336   0.336   0.336   0.336   0.336   0.336
   102.30    0.336   0.336   0.336   0.336   0.336   0.336   0.336   0.336   0.336   0.336   0.336   0.336   0.336
    87.70    0.336   0.336   0.336   0.336   0.336   0.336   0.336   0.336   0.336   0.336   0.336   0.336   0.336
    73.10    0.336   0.336   0.336   0.336   0.336   0.336   0.336   0.336   0.336   0.336   0.336   0.336   0.336
    58.50    0.336   0.336   0.336   0.336   0.336   0.336   0.336   0.336   0.336   0.336   0.336   0.336   0.336
    43.90    0.336   0.336   0.336   0.336   0.336   0.336   0.336   0.336   0.336   0.336   0.336   0.336   0.336
    29.30    0.336   0.336   0.336   0.336   0.336   0.336   0.336   0.336   0.336   0.336   0.336   0.336   0.336
    14.70    0.336   0.336   0.336   0.336   0.336   0.336   0.336   0.336   0.336   0.336   0.336   0.336   0.336
     0.10    0.336   0.336   0.336   0.336   0.336   0.336   0.336   0.336   0.336   0.336   0.336   0.336   0.336

   Mean standard deviation across all grid points:
      u component:    0.633 m/s
      v component:    0.533 m/s
      w component:    0.336 m/s


U-component (X) statistics from the hub grid point:

   Mean =   8.5677 m/s
   TI   =   8.7662 %


Normalizing Parameters for Binary Data (approximate statistics):

   UBar  =   8.5677 m/s
   TI(u) =   8.7662 %
   TI(v) =   6.2243 %
   TI(w) =   3.9183 %

   Height Offset =  -0.0000 m
   Grid Base     =   0.1000 m

Nyquist frequency of turbulent wind field =        10.000 Hz


Processing complete.  14.648 CPU seconds used.
