
This summary file was generated by InflowWind v3.02.00a-bjj on 11-Apr-2017 at 14:26:50.

  WindType:   4

Bladed-style wind type.  Read by InflowWind sub-module IfW_BladedFFWind v1.01.00

     FileName:                    /home/sebasanper/PycharmProjects/owf_MDAO/aero_loads_models/turbsim_test_run/TurbSim.wnd
     Binary file format id:       -99
     Reference height (m):           87.60    
     Timestep (s):                  0.5000E-01
     Number of timesteps:                 2409
     Mean windspeed (m/s):           8.568    
     Characteristic TI:            [ 7.1534, 6.2243, 3.9183 ] 
     Windfile is periodic:        F
     Windfile includes tower:     F
     Time range (s):              [ -10.224 : 110.18 ]
     Y range (m):                 [ -87.6 : 87.6 ]
     Z range (m):                 [ -7.62939E-06 : 175.2 ]

This summary file was closed on 11-Apr-2017 at 14:26:50.

