
This summary file was generated by TurbSim (v1.06.00, 21-Sep-2012) on 18-Nov-2016 at 10:42:58.


Runtime Options:

      2374  Random seed #1
    RANLUX  Type of random number generator
         F  Output binary HH turbulence parameters?
         T  Output formatted turbulence parameters?
         F  Output AeroDyn HH files?
         T  Output AeroDyn FF files?
         T  Output BLADED FF files?
         F  Output tower data?
         T  Output formatted FF files?
         T  Output coherent turbulence time step file?
         T  Clockwise rotation when looking downwind?
 0 -  NONE  IEC turbulence models scaled to exact specified standard deviation


Turbine/Model Specifications:

        13  Vertical grid-point matrix dimension
        13  Horizontal grid-point matrix dimension
     0.050  Time step [seconds]
   600.000  Analysis time [seconds]
    40.000  Usable output time [seconds]
    87.600  Hub height [m]
   175.200  Grid height [m]
   175.200  Grid width [m]
     0.000  Vertical flow angle [degrees]
     0.000  Horizontal flow angle [degrees]


Meteorological Boundary Conditions:

    IECKAI  IEC Kaimal spectral model
         1  IEC standard: IEC 61400-1 Ed. 3: 2005
     7.000  Percent turbulence intensity, IEC 61400-1 Ed. 3: 2005
       NTM  IEC Normal Turbulence Model
       N/A  IEC Extreme Turbulence Model (ETM) "c" parameter [m/s]
       IEC  Wind profile type
    84.288  Reference height [m]
     7.200  Reference wind speed [m/s]
       N/A  Jet height [m]
     0.200  Power law exponent
     0.030  Surface roughness length [m]


Coherent turbulence time step files are not available for IEC or TIDAL spectral models.

WARNING:   A coherent turbulence time step file cannot be generated with the IECKAI model.



You have requested that the following file(s) be generated:

   TurbSim.dat (formatted turbulence-parameter file)
   TurbSim.bts (AeroDyn/TurbSim full-field wind file)
   TurbSim.wnd (AeroDyn/BLADED full-field wnd file)
   TurbSim.u (formatted full-field U-component file)
   TurbSim.v (formatted full-field V-component file)
   TurbSim.w (formatted full-field W-component file)


Turbulence Simulation Scaling Parameter Summary:

   Turbulence model used                            =  IEC Kaimal
   Turbulence characteristic                        =  User-specified
   IEC standard                                     =  IEC 61400-1 Ed. 3: 2005
   Mean wind speed at hub height                    =    7.257 m/s
   Characteristic value of standard deviation       =    0.508 m/s
   Turbulence scale                                 =   42.000 m
   u-component integral scale                       =  340.200 m
   Coherency scale                                  =  340.200 m
   Characteristic value of hub turbulence intensity =    7.000%
   Gradient Richardson number                       =    0.000

   Wind profile type                                =  Power law on rotor disk, logarithmic elsewhere
   Power law exponent                               =    0.200
   Mean shear across rotor disk                     =    0.034 (m/s)/m
   Assumed rotor diameter                           =  175.200 m
   Surface roughness length                         =    0.030 m

   Number of time steps in the FFT                  =    12000
   Number of time steps output                      =     1283


Mean Flow Angles:

   Vertical   =   0.0 degrees
   Horizontal =   0.0 degrees

Mean Wind Speed Profile:

   Height    Wind Speed   Horizontal Angle  U-comp (X)   V-comp (Y)   W-comp (Z)
     (m)        (m/s)         (degrees)       (m/s)        (m/s)        (m/s)   
   ------    ----------   ----------------  ----------   ----------   ----------
    175.3        7.89            0.00          7.89         0.00         0.00
    160.7        8.19            0.00          8.19         0.00         0.00
    146.1        8.04            0.00          8.04         0.00         0.00
    131.5        7.87            0.00          7.87         0.00         0.00
    116.9        7.69            0.00          7.69         0.00         0.00
    102.3        7.48            0.00          7.48         0.00         0.00
     87.7        7.26            0.00          7.26         0.00         0.00
     73.1        7.00            0.00          7.00         0.00         0.00
     58.5        6.69            0.00          6.69         0.00         0.00
     43.9        6.32            0.00          6.32         0.00         0.00
     29.3        5.83            0.00          5.83         0.00         0.00
     14.7        5.08            0.00          5.08         0.00         0.00
      0.1        1.87            0.00          1.87         0.00         0.00


Harvested Random Seeds after Generation of the Random Numbers:

     28265250 K1
            0 K2


Hub-Height Simulated Turbulence Statistical Summary:

   Type of Wind        Min (m/s)   Mean (m/s)    Max (m/s)  Sigma (m/s)       TI (%)
   ----------------    ---------   ----------    ---------  -----------       ------
   Longitudinal (u)         5.61         7.26         8.77        0.461        6.350
   Lateral (v)             -1.23         0.00         1.43        0.394        5.429
   Vertical (w)            -0.84        -0.00         0.89        0.249        3.431
   U component              5.61         7.26         8.77        0.461        6.350
   V component             -1.23         0.00         1.43        0.394        5.429
   W component             -0.84        -0.00         0.89        0.249        3.431
   Horizontal (U&V)         5.61         7.27         8.77        0.463        6.365
   Total                    5.62         7.27         8.77        0.463        6.362

                       Min Reynolds     Mean Reynolds    Max Reynolds    Correlation
   Product             Stress (m/s)^2   Stress (m/s)^2   Stress (m/s)^2  Coefficient
   ----------------    --------------   --------------   --------------  -----------
   u'w'                     -0.803            -0.006             0.589        -0.053
   u'v'                     -1.011             0.005             1.105         0.030
   v'w'                     -0.591            -0.009             0.571        -0.096


   Friction Velocity (Ustar)  =      0.078 m/s
   Maximum Instantaneous TKE  =      1.402 (m/s)^2
   Maximum Instantaneous CTKE =      0.716 (m/s)^2


Grid Point Variance Summary:

   Y-coord  -87.60  -73.00  -58.40  -43.80  -29.20  -14.60    0.00   14.60   29.20   43.80   58.40   73.00   87.60

   Height   Standard deviation at grid points for the u component:
   175.30    0.443   0.478   0.495   0.498   0.509   0.475   0.487   0.495   0.463   0.401   0.383   0.357   0.388
   160.70    0.492   0.515   0.489   0.503   0.552   0.515   0.458   0.490   0.512   0.393   0.405   0.396   0.332
   146.10    0.487   0.515   0.505   0.522   0.518   0.525   0.463   0.482   0.468   0.453   0.408   0.373   0.348
   131.50    0.440   0.480   0.483   0.437   0.502   0.519   0.517   0.481   0.449   0.450   0.393   0.402   0.430
   116.90    0.504   0.515   0.509   0.492   0.437   0.491   0.515   0.460   0.435   0.453   0.436   0.404   0.387
   102.30    0.441   0.436   0.454   0.446   0.482   0.491   0.471   0.457   0.444   0.420   0.407   0.424   0.383
    87.70    0.380   0.368   0.405   0.434   0.416   0.461   0.461   0.455   0.394   0.338   0.404   0.399   0.400
    73.10    0.385   0.398   0.374   0.404   0.474   0.451   0.456   0.440   0.376   0.393   0.373   0.396   0.417
    58.50    0.418   0.426   0.418   0.396   0.459   0.495   0.486   0.437   0.433   0.370   0.360   0.385   0.405
    43.90    0.407   0.411   0.392   0.423   0.480   0.467   0.470   0.463   0.421   0.423   0.416   0.423   0.438
    29.30    0.403   0.428   0.393   0.438   0.427   0.407   0.411   0.404   0.399   0.454   0.444   0.431   0.429
    14.70    0.437   0.402   0.439   0.448   0.421   0.370   0.393   0.441   0.415   0.438   0.485   0.408   0.370
     0.10    0.471   0.425   0.426   0.407   0.414   0.412   0.394   0.446   0.419   0.477   0.491   0.441   0.433

   Height   Standard deviation at grid points for the v component:
   175.30    0.394   0.394   0.394   0.394   0.394   0.394   0.394   0.394   0.394   0.394   0.394   0.394   0.394
   160.70    0.394   0.394   0.394   0.394   0.394   0.394   0.394   0.394   0.394   0.394   0.394   0.394   0.394
   146.10    0.394   0.394   0.394   0.394   0.394   0.394   0.394   0.394   0.394   0.394   0.394   0.394   0.394
   131.50    0.394   0.394   0.394   0.394   0.394   0.394   0.394   0.394   0.394   0.394   0.394   0.394   0.394
   116.90    0.394   0.394   0.394   0.394   0.394   0.394   0.394   0.394   0.394   0.394   0.394   0.394   0.394
   102.30    0.394   0.394   0.394   0.394   0.394   0.394   0.394   0.394   0.394   0.394   0.394   0.394   0.394
    87.70    0.394   0.394   0.394   0.394   0.394   0.394   0.394   0.394   0.394   0.394   0.394   0.394   0.394
    73.10    0.394   0.394   0.394   0.394   0.394   0.394   0.394   0.394   0.394   0.394   0.394   0.394   0.394
    58.50    0.394   0.394   0.394   0.394   0.394   0.394   0.394   0.394   0.394   0.394   0.394   0.394   0.394
    43.90    0.394   0.394   0.394   0.394   0.394   0.394   0.394   0.394   0.394   0.394   0.394   0.394   0.394
    29.30    0.394   0.394   0.394   0.394   0.394   0.394   0.394   0.394   0.394   0.394   0.394   0.394   0.394
    14.70    0.394   0.394   0.394   0.394   0.394   0.394   0.394   0.394   0.394   0.394   0.394   0.394   0.394
     0.10    0.394   0.394   0.394   0.394   0.394   0.394   0.394   0.394   0.394   0.394   0.394   0.394   0.394

   Height   Standard deviation at grid points for the w component:
   175.30    0.249   0.249   0.249   0.249   0.249   0.249   0.249   0.249   0.249   0.249   0.249   0.249   0.249
   160.70    0.249   0.249   0.249   0.249   0.249   0.249   0.249   0.249   0.249   0.249   0.249   0.249   0.249
   146.10    0.249   0.249   0.249   0.249   0.249   0.249   0.249   0.249   0.249   0.249   0.249   0.249   0.249
   131.50    0.249   0.249   0.249   0.249   0.249   0.249   0.249   0.249   0.249   0.249   0.249   0.249   0.249
   116.90    0.249   0.249   0.249   0.249   0.249   0.249   0.249   0.249   0.249   0.249   0.249   0.249   0.249
   102.30    0.249   0.249   0.249   0.249   0.249   0.249   0.249   0.249   0.249   0.249   0.249   0.249   0.249
    87.70    0.249   0.249   0.249   0.249   0.249   0.249   0.249   0.249   0.249   0.249   0.249   0.249   0.249
    73.10    0.249   0.249   0.249   0.249   0.249   0.249   0.249   0.249   0.249   0.249   0.249   0.249   0.249
    58.50    0.249   0.249   0.249   0.249   0.249   0.249   0.249   0.249   0.249   0.249   0.249   0.249   0.249
    43.90    0.249   0.249   0.249   0.249   0.249   0.249   0.249   0.249   0.249   0.249   0.249   0.249   0.249
    29.30    0.249   0.249   0.249   0.249   0.249   0.249   0.249   0.249   0.249   0.249   0.249   0.249   0.249
    14.70    0.249   0.249   0.249   0.249   0.249   0.249   0.249   0.249   0.249   0.249   0.249   0.249   0.249
     0.10    0.249   0.249   0.249   0.249   0.249   0.249   0.249   0.249   0.249   0.249   0.249   0.249   0.249

   Mean standard deviation across all grid points:
      u component:    0.439 m/s
      v component:    0.394 m/s
      w component:    0.249 m/s


U-component (X) statistics from the hub grid point:

   Mean =   7.2574 m/s
   TI   =   6.3504 %


Normalizing Parameters for Binary Data (approximate statistics):

   UBar  =   7.2574 m/s
   TI(u) =   6.3504 %
   TI(v) =   5.4286 %
   TI(w) =   3.4307 %

   Height Offset =  -0.0000 m
   Grid Base     =   0.1000 m

Nyquist frequency of turbulent wind field =        10.000 Hz


Processing complete.  13.76 CPU seconds used.
